test/data/pwf/test_system.pwf
TITU
Caso do Anderson - P�gina 38                                                    
DOPC IMPR
(Op) E (Op) E (Op) E (Op) E (Op) E (Op) E (Op) E (Op) E (Op) E (Op) E
QLIM L CREM L STEP L NEWT L MOST L MOSG L MOSF L RCVG L RMON L FILE L
CONT L CELO L MFCT L
99999
DCTE
(Mn) ( Val) (Mn) ( Val) (Mn) ( Val) (Mn) ( Val) (Mn) ( Val) (Mn) ( Val) 
BASE   100. DASE   100. TEPA     .1 EXST     .4 TETP     5. TBPA     5.
TLPP     1. TEPR     .1 QLST     .4 TLPR     .1 TLPQ     2. TSBZ    .01
TSBA     5. ASTP    .05 VSTP     5. TLVC     .5 TLTC    .01 TSFR  .1E-7
ZMAX   500. TLPV     .5 VDVM   200. VDVN    40. TUDC   .001 TADC    .01
PGER    30. TPST     .2 VFLD    80. ZMIN   .001 HIST    470 LFIT     10
ACIT     35 LFCV      1 DCIT     10 VSIT     10 LPIT     50 LFLP     10
PDIT     10 LCRT     96 LPRT     60 CSTP     5. ASDC     1.
ICIT   9999 DMAX      5 FDIV     2. ICMN    .05 VART     5. TSTP     33
ICMV     .5 APAS    90. CPAR    70. VAVT     2. VAVF     5. VMVF    15.
VPVT     2. VPVF     5. VPMF    10. VSVF    20. VINF     1. VSUP     1.
TLSI     0. NDIR    20. STTR     5. TRPT   100. STIR     1. BFPO     1.
LFPO     .1                                                            
99999
DBAR
(Num)OETGb(   nome   )Gl( V)( A)( Pg)( Qg)( Qn)( Qm)(Bc  )( Pl)( Ql)( Sh)Are(Vf)M(1)(2)(3)(4)(5)(6)(7)(8)(9)(10
   21 D1 ABus 1        A10408.88 19.6 -3.2 -130130.4                       11000                                   
   22 L2 BBus 2        A1025 9.339.2 -4.6 -99999999.                       11000                                   
   23 L2 BBus 3        A10257.5325.5 -11.4-99999999.                       11000                                   
   24 L  CBus 4        A1060 8.4                           34.6 6.9        11000                                   
   25 L  CBus 5        A10818.05                                           11000                                   
   26 L  CBus 6        A10857.31                                           11000                                   
   27 L  CBus 7        A10498.71                                           11000                                   
   28 L  CBus 8        A10797.46                           33.7 6.7        11000                                   
   29 L  CBus 9        A10577.22                                           11000                                  
99999
DLIN
(De )d O d(Pa )NcEP ( R% )( X% )(Mvar)(Tap)(Tmn)(Tmx)(Phs)(Bc  )(Cn)(Ce)Ns(Cq)(1)(2)(3)(4)(5)(6)(7)(8)(9)(10
   21        24 1           6.25         1.                     247.247.  247.                                
   22        27 1           6.25         1.                     192.192.  192.                                
   23        29 1           6.25         1.                     128.128.  128.                                
   24        26 1 T     1.   30.  10.5                          300.300.  300.                                
   26        29 1       1.   30.  10.5                          200.200.  200.                                
   27        25 1 T     1.   30.  10.5                          200.200.  200.                                
   25        28 1       1.   30.  10.5                          300.300.  300.                                                                       
99999
FIM
